test/data/three_phase/regulator_center_tap_xfmr/result.csv
# result.csv run at 2000-01-01 00:00:00 EST on 21 powerflow objects (not all are nodes)
node_name,voltA_real,voltA_imag,voltB_real,voltB_imag,voltC_real,voltC_imag
R1-12-47-1_node_617,7216.880000,0.000000,-3608.440000,-6250.000000,-3608.440000,6250.000000
R1-12-47-1_meter_21,7216.880000,-0.000000,-3608.440000,-6250.000000,-3608.439997,6249.999927
R1-12-47-1_node_613,7216.880000,-0.000000,-3608.440000,-6250.000000,-3608.439997,6249.999927
R1-12-47-1_node_612,7216.880000,-0.000000,-3608.440000,-6250.000000,-3608.440067,6249.999850
R1-12-47-1_node_3,7216.902410,-0.006016,-3608.417590,-6250.006016,-3608.375658,6249.976257
R1-12-47-1_tn_556,-58.651320,102.070387,-58.651320,102.070387,0.000000,0.000000
R1-12-47-1_tm_556,-58.625411,101.949772,-58.625411,101.949772,0.000000,0.000000
R1-12-47-1_tn_1154,-58.625411,101.949772,-58.625411,101.949772,0.000000,0.000000
